!
!  ROMS/TOMS Standard Input parameters.
!
!svn $Id: ocean.in 599 2012-01-22 22:33:51Z arango $
!========================================================= Hernan G. Arango ===
!  Copyright (c) 2002-2012 The ROMS/TOMS Group                                !
!    Licensed under a MIT/X style license                                     !
!    See License_ROMS.txt                                                     !
!==============================================================================
!
! Application title.

       TITLE = A PNWTOX run

! C-preprocessing Flag.

    MyAppCPP = PTX_01

! Input variable information file name.  This file needs to be processed
! first so all information arrays can be initialized properly.

     VARNAME = /glade/p/cgd/oce/people/paulmac/roms/ROMS/ROMS/External/varinfo.dat

! Number of nested grids.

      Ngrids =  1

! Grid dimension parameters. See notes below in the Glossary for how to set
! these parameters correctly.

          Lm == 172            ! Number of I-direction INTERIOR RHO-points
          Mm == 379            ! Number of J-direction INTERIOR RHO-points
           N == 40            ! Number of vertical levels

        Nbed =  0             ! Number of sediment bed layers

         NAT =  2             ! Number of active tracers (usually, 2)
         NPT =  5             ! Number of inactive passive tracers
         NCS =  0             ! Number of cohesive (mud) sediment tracers
         NNS =  0             ! Number of non-cohesive (sand) sediment tracers

! Domain decomposition parameters for serial, distributed-memory or
! shared-memory configurations used to determine tile horizontal range
! indices (Istr,Iend) and (Jstr,Jend), [1:Ngrids].

      NtileI == 8                               ! I-direction partition
      NtileJ == 24                               ! J-direction partition

! Set lateral boundary conditions keyword. Notice that a value is expected
! for each boundary segment per nested grid for each state variable.
!
! Each tracer variable requires [1:4,1:NAT+NPT,Ngrids] values. Otherwise,
! [1:4,1:Ngrids] values are expected for other variables. The boundary
! order is: 1=west, 2=south, 3=east, and 4=north. That is, anticlockwise
! starting at the western boundary.
!
! The keyword is case insensitive and usually has three characters. However,
! it is possible to have compound keywords, if applicable. For example, the
! keyword "RadNud" implies radiation boundary condition with nudging. This
! combination is usually used in active/passive radiation conditions.
!
!   Keyword    Lateral Boundary Condition Type
!
!   Cha        Chapman
!   Cla        Clamped
!   Clo        Closed
!   Fla        Flather                                _____N_____     j=Mm
!   Gra        Gradient                              |     4     |
!   Nes        Nested                                |           |
!   Nud        Nudging                             1 W           E 3
!   Per        Periodic                              |           |
!   Rad        Radiation                             |_____S_____|
!   Red        Reduced Physics                             2          j=1
!                                                   i=1         i=Lm
!                   W       S       E       N
!                   e       o       a       o
!                   s       u       s       r
!                   t       t       t       t
!                           h               h
!
!                   1       2       3       4

   LBC(isFsur) ==   Cha     Cha     Clo     Clo         ! free-surface
   LBC(isUbar) ==   Fla     Fla     Clo     Clo         ! 2D U-momentum
   LBC(isVbar) ==   Fla     Fla     Clo     Clo         ! 2D V-momentum
   LBC(isUvel) ==   RadNud     RadNud     Clo     Clo         ! 3D U-momentum
   LBC(isVvel) ==   RadNud     RadNud     Clo     Clo         ! 3D V-momentum
   LBC(isMtke) ==   RadNud     RadNud     Clo     Clo         ! mixing TKE

   LBC(isTvar) ==   RadNud     RadNud     Clo     Clo \       ! temperature
                    RadNud     RadNud     Clo     Clo \       ! salinity
                    RadNud     RadNud     Clo     Clo \       ! dye
                    RadNud     RadNud     Clo     Clo \       ! dye
                    RadNud     RadNud     Clo     Clo \       ! dye
                    RadNud     RadNud     Clo     Clo \       ! dye
                    RadNud     RadNud     Clo     Clo         ! dye

! Set lateral open boundary edge volume conservation switch for
! nonlinear model and adjoint-based algorithms. Usually activated
! with radiation boundary conditions to enforce global mass
! conservation, except if tidal forcing enabled. [1:Ngrids].

   VolCons(west)  ==  F                            ! western  boundary
   VolCons(east)  ==  F                            ! eastern  boundary
   VolCons(south) ==  F                            ! southern boundary
   VolCons(north) ==  F                            ! northern boundary

ad_VolCons(west)  ==  F                            ! western  boundary
ad_VolCons(east)  ==  F                            ! eastern  boundary
ad_VolCons(south) ==  F                            ! southern boundary
ad_VolCons(north) ==  F                            ! northern boundary

! Time-Stepping parameters.

      NTIMES == 1576800
          DT == 20.0d0
     NDTFAST == 20

! Model iteration loops parameters.

       ERstr =  1
       ERend =  1
      Nouter =  1
      Ninner =  1
  Nintervals =  1

! Number of eigenvalues (NEV) and eigenvectors (NCV) to compute for the
! Lanczos/Arnoldi problem in the Generalized Stability Theory (GST)
! analysis. NCV must be greater than NEV (see documentation below).

         NEV =  2                               ! Number of eigenvalues
         NCV =  10                              ! Number of eigenvectors

! Input/Output parameters.

       NRREC == 0
   LcycleRST == T
        NRST == 21600
        NSTA == 1
        NFLT == 1
       NINFO == 180

! Output history, average, diagnostic files parameters.

     LDEFOUT == T
        NHIS == 180
     NDEFHIS == 180
      NTSAVG == 1
        NAVG == 180
     NDEFAVG == 180
      NTSDIA == 1
        NDIA == 180
     NDEFDIA == 180

! GST output and check pointing restart parameters.

   LmultiGST =  F                               ! one eigenvector per file
     LrstGST =  F                               ! GST restart switch
  MaxIterGST =  500                             ! maximum number of iterations
        NGST =  10                              ! check pointing interval

! Relative accuracy of the Ritz values computed in the GST analysis.

    Ritz_tol =  1.0d-15

! Harmonic/biharmonic horizontal diffusion of tracer for nonlinear model
! and adjoint-based algorithms: [1:NAT+NPT,Ngrids].

        TNU2 == 7*2.0d0                         ! m2/s
        TNU4 == 7*0.0d0                         ! m4/s

     ad_TNU2 == 7*0.0d0                    ! m2/s
     ad_TNU4 == 7*0.0d0                    ! m4/s

! Harmonic/biharmonic, horizontal viscosity coefficient for nonlinear model
! and adjoint-based algorithms: [Ngrids].

       VISC2 == 5.0d0                           ! m2/s
       VISC4 == 0.0d0                           ! m4/s

    ad_VISC2 == 0.0d0                           ! m2/s
    ad_VISC4 == 0.0d0                           ! m4/s

! Vertical mixing coefficients for tracers in nonlinear model and
! basic state scale factor in adjoint-based algorithms: [1:NAT+NPT,Ngrids]

     AKT_BAK == 7*5.0d-6                   ! m2/s

  ad_AKT_fac == 7*1.0d0                    ! nondimensional

! Vertical mixing coefficient for momentum for nonlinear model and
! basic state scale factor in adjoint-based algorithms: [Ngrids].

     AKV_BAK == 5.0d-6                          ! m2/s

  ad_AKV_fac == 1.0d0                           ! nondimensional

! Turbulent closure parameters.

     AKK_BAK == 5.0d-6                          ! m2/s
     AKP_BAK == 5.0d-6                          ! m2/s
      TKENU2 == 0.0d0                           ! m2/s
      TKENU4 == 0.0d0                           ! m4/s

! Generic length-scale turbulence closure parameters.

       GLS_P == 3.0d0                           ! K-epsilon
       GLS_M == 1.5d0
       GLS_N == -1.0d0
    GLS_Kmin == 7.6d-6
    GLS_Pmin == 1.0d-12

    GLS_CMU0 == 0.5477d0
      GLS_C1 == 1.44d0
      GLS_C2 == 1.92d0
     GLS_C3M == -0.4d0
     GLS_C3P == 1.0d0
    GLS_SIGK == 1.0d0
    GLS_SIGP == 1.30d0

! Constants used in surface turbulent kinetic energy flux computation.

  CHARNOK_ALPHA == 1400.0d0         ! Charnok surface roughness
 ZOS_HSIG_ALPHA == 0.5d0            ! roughness from wave amplitude
       SZ_ALPHA == 0.25d0           ! roughness from wave dissipation
      CRGBAN_CW == 100.0d0          ! Craig and Banner wave breaking

! Constants used in momentum stress computation.

        RDRG == 3.0d-04                    ! m/s
       RDRG2 == 3.0d-03                    ! nondimensional
         Zob == 0.02d0                     ! m
         Zos == 0.02d0                     ! m

! Height (m) of atmospheric measurements for Bulk fluxes parameterization.

      BLK_ZQ == 2.0d0                     ! air humidity
      BLK_ZT == 2.0d0                     ! air temperature
      BLK_ZW == 10.0d0                     ! winds

! Minimum depth for wetting and drying.

       DCRIT == 0.10d0                     ! m

! Various parameters.

       WTYPE == 5
     LEVSFRC == 15
     LEVBFRC == 1

! Set vertical, terrain-following coordinates transformation equation and
! stretching function (see below for details), [1:Ngrids].

  Vtransform == 1                          ! transformation equation
 Vstretching == 1                          ! stretching function

! Vertical S-coordinates parameters (see below for details), [1:Ngrids].

     THETA_S == 4.0d0                      ! surface stretching parameter
     THETA_B == 0.8d0                      ! bottom  stretching parameter
      TCLINE == 0.0d0                     ! critical depth (m)

! Mean Density and Brunt-Vaisala frequency.

        RHO0 =  1023.7d0                   ! kg/m3
     BVF_BAK =  1.0d-5                     ! 1/s2

! Time-stamp assigned for model initialization, reference time
! origin for tidal forcing, and model reference time for output
! NetCDF units attribute.

      DSTART =  0.0d0                      ! days
  TIDE_START =  -4749.0d0
! days from TIME_REF to 1/1/1992 [generally NEGATIVE!] (PM 9/7/2012)
    TIME_REF =  20050101.0d0               ! yyyymmdd.dd

! Nudging/relaxation time scales, inverse scales will be computed
! internally, [1:Ngrids].

       TNUDG == 2*360.0d0 5*0.0d0            ! days
       ZNUDG == 360.0d0                      ! days
      M2NUDG == 360.0d0                      ! days
      M3NUDG == 360.0d0                      ! days

! Factor between passive (outflow) and active (inflow) open boundary
! conditions, [1:Ngrids]. If OBCFAC > 1, nudging on inflow is stronger
! than on outflow (recommended).

      OBCFAC == 480.0d0                      ! nondimensional

! Linear equation of State parameters:

          R0 == 1027.0d0                   ! kg/m3
          T0 == 4.0d0                     ! Celsius
          S0 == 32.0d0                     ! PSU
       TCOEF == 1.7d-4                     ! 1/Celsius
       SCOEF == 7.6d-4                      ! 1/PSU

! Slipperiness parameter: 1.0 (free slip) or -1.0 (no slip)

      GAMMA2 == -1.0d0

! Logical switches (TRUE/FALSE) to specify which variables to consider on
! tracers point Sources/Sinks (like river runoff): [1:NAT+NPT,Ngrids].
! See glossary below for details.

  LtracerSrc == T T T T T T T                       ! temperature, salinity, inert

! Logical switches (TRUE/FALSE) to activate writing of fields into
! HISTORY output file.

Hout(idUvel) == T       ! u                  3D U-velocity
Hout(idVvel) == T       ! v                  3D V-velocity
Hout(idu3dE) == F       ! u_eastward         3D U-eastward  at RHO-points
Hout(idv3dN) == F       ! v_northward        3D V-northward at RHO-points
Hout(idWvel) == T       ! w                  3D W-velocity
Hout(idOvel) == F       ! omega              omega vertical velocity
Hout(idUbar) == T       ! ubar               2D U-velocity
Hout(idVbar) == T       ! vbar               2D V-velocity
Hout(idu2dE) == F       ! ubar_eastward      2D U-eastward  at RHO-points
Hout(idv2dN) == F       ! vbar_northward     2D V-northward at RHO-points
Hout(idFsur) == T       ! zeta               free-surface
Hout(idBath) == F       ! bath               time-dependent bathymetry

Hout(idTvar) == T T     ! temp, salt         temperature and salinity

Hout(idUsms) == T       ! sustr              surface U-stress
Hout(idVsms) == T       ! svstr              surface V-stress
Hout(idUbms) == T       ! bustr              bottom U-stress
Hout(idVbms) == T       ! bvstr              bottom V-stress

Hout(idPair) == F       ! Pair               surface air pressure
Hout(idUair) == T       ! Uair               surface U-wind component
Hout(idVair) == T       ! Vair               surface V-wind component

Hout(idTsur) == T F     ! shflux, ssflux     surface net heat and salt flux
Hout(idLhea) == T       ! latent             latent heat flux
Hout(idShea) == T       ! sensible           sensible heat flux
Hout(idLrad) == T       ! lwrad              longwave radiation flux
Hout(idSrad) == T       ! swrad              shortwave radiation flux
Hout(idEmPf) == T       ! EminusP            E-P flux
Hout(idevap) == T       ! evaporation        evaporation rate
Hout(idrain) == T       ! rain               precipitation rate

Hout(idDano) == T       ! rho                density anomaly
Hout(idVvis) == T       ! AKv                vertical viscosity
Hout(idTdif) == F       ! AKt                vertical T-diffusion
Hout(idSdif) == T       ! AKs                vertical Salinity diffusion
Hout(idHsbl) == F       ! Hsbl               depth of surface boundary layer
Hout(idHbbl) == F       ! Hbbl               depth of bottom boundary layer
Hout(idMtke) == F       ! tke                turbulent kinetic energy
Hout(idMtls) == F       ! gls                turbulent length scale

! Logical switches (TRUE/FALSE) to activate writing of extra inert passive
! tracers other than biological and sediment tracers. An inert passive tracer
! is one that it is only advected and diffused. Other processes are ignored.
! These tracers include, for example, dyes, pollutants, oil spills, etc.
! NPT values are expected. However, these switches can be activated using
! compact parameter specification.

Hout(inert) == T T T T T       ! dye_01, ...        inert passive tracers

! Logical switches (TRUE/FALSE) to activate writing of time-averaged
! fields into AVERAGE output file.

Aout(idUvel) == T       ! u                  3D U-velocity
Aout(idVvel) == T       ! v                  3D V-velocity
Aout(idu3dE) == F       ! u_eastward         3D U-eastward  at RHO-points
Aout(idv3dN) == F       ! v_northward        3D V-northward at RHO-points
Aout(idWvel) == T       ! w                  3D W-velocity
Aout(idOvel) == F       ! omega              omega vertical velocity
Aout(idUbar) == T       ! ubar               2D U-velocity
Aout(idVbar) == T       ! vbar               2D V-velocity
Aout(idu2dE) == F       ! ubar_eastward      2D U-eastward  at RHO-points
Aout(idv2dN) == F       ! vbar_northward     2D V-northward at RHO-points
Aout(idFsur) == T       ! zeta               free-surface

Aout(idTvar) == T T     ! temp, salt         temperature and salinity

Aout(idUsms) == T       ! sustr              surface U-stress
Aout(idVsms) == T       ! svstr              surface V-stress
Aout(idUbms) == T       ! bustr              bottom U-stress
Aout(idVbms) == T       ! bvstr              bottom V-stress

Aout(idPair) == F       ! Pair               surface air pressure
Aout(idUair) == T       ! Uair               surface U-wind component
Aout(idVair) == T       ! Vair               surface V-wind component

Aout(idTsur) == T T     ! shflux, ssflux     surface net heat and salt flux
Aout(idLhea) == T       ! latent             latent heat flux
Aout(idShea) == T       ! sensible           sensible heat flux
Aout(idLrad) == T       ! lwrad              longwave radiation flux
Aout(idSrad) == T       ! swrad              shortwave radiation flux
Aout(idevap) == T       ! evaporation        evaporation rate
Aout(idrain) == T       ! rain               precipitation rate

Aout(idDano) == F       ! rho                density anomaly
Aout(idVvis) == F       ! AKv                vertical viscosity
Aout(idTdif) == F       ! AKt                vertical T-diffusion
Aout(idSdif) == F       ! AKs                vertical Salinity diffusion
Aout(idHsbl) == F       ! Hsbl               depth of surface boundary layer
Aout(idHbbl) == F       ! Hbbl               depth of bottom boundary layer

Aout(idHUav) == T       ! Huon               u-volume flux, Huon
Aout(idHVav) == T       ! Hvom               v-volume flux, Hvom
Aout(idUUav) == T       ! uu                 quadratic <u*u> term
Aout(idUVav) == F       ! uv                 quadratic <u*v> term
Aout(idVVav) == T       ! vv                 quadratic <v*v> term
Aout(idU2av) == T       ! ubar2              quadratic <ubar*ubar> term
Aout(idV2av) == T       ! vbar2              quadratic <vbar*vbar> term
Aout(idZZav) == T       ! zeta2              quadratic <zeta*zeta> term

Aout(idTTav) == F F     ! temp2, salt2       quadratic <t*t> T/S terms
Aout(idUTav) == F F     ! utemp, usalt       quadratic <u*t> T/S terms
Aout(idVTav) == F F     ! vtemp, vsalt       quadratic <v*t> T/S terms
Aout(iHUTav) == T T     ! Huontemp, ...      T/S volume flux, <Huon*t>
Aout(iHVTav) == T T     ! Hvomtemp, ...      T/S volume flux, <Hvom*t>

! Logical switches (TRUE/FALSE) to activate writing of extra inert passive
! tracers other than biological and sediment tracers into the AVERAGE file.

Aout(inert) == F F F F F   ! dye_01, ...        inert passive tracers

! Logical switches (TRUE/FALSE) to activate writing of time-averaged,
! 2D momentum (ubar,vbar) diagnostic terms into DIAGNOSTIC output file.

Dout(M2rate) == T       ! ubar_accel, ...    acceleration
Dout(M2pgrd) == T       ! ubar_prsgrd, ...   pressure gradient
Dout(M2fcor) == T       ! ubar_cor, ...      Coriolis force
Dout(M2hadv) == T       ! ubar_hadv, ...     horizontal total advection
Dout(M2xadv) == T       ! ubar_xadv, ...     horizontal XI-advection
Dout(M2yadv) == T       ! ubar_yadv, ...     horizontal ETA-advection
Dout(M2hrad) == T       ! ubar_hrad, ...     horizontal total radiation stress
Dout(M2hvis) == T       ! ubar_hvisc, ...    horizontal total viscosity
Dout(M2xvis) == T       ! ubar_xvisc, ...    horizontal XI-viscosity
Dout(M2yvis) == T       ! ubar_yvisc, ...    horizontal ETA-viscosity
Dout(M2sstr) == T       ! ubar_sstr, ...     surface stress
Dout(M2bstr) == T       ! ubar_bstr, ...     bottom stress

! Logical switches (TRUE/FALSE) to activate writing of time-averaged,
! 3D momentum (u,v) diagnostic terms into DIAGNOSTIC output file.

Dout(M3rate) == T       ! u_accel, ...       acceleration
Dout(M3pgrd) == T       ! u_prsgrd, ...      pressure gradient
Dout(M3fcor) == T       ! u_cor, ...         Coriolis force
Dout(M3hadv) == T       ! u_hadv, ...        horizontal total advection
Dout(M3xadv) == T       ! u_xadv, ...        horizontal XI-advection
Dout(M3yadv) == T       ! u_yadv, ...        horizontal ETA-advection
Dout(M3vadv) == T       ! u_vadv, ...        vertical advection
Dout(M3hrad) == T       ! u_hrad, ...        horizontal total radiation stress
Dout(M3vrad) == T       ! u_vrad, ...        vertical radiation stress
Dout(M3hvis) == T       ! u_hvisc, ...       horizontal total viscosity
Dout(M3xvis) == T       ! u_xvisc, ...       horizontal XI-viscosity
Dout(M3yvis) == T       ! u_yvisc, ...       horizontal ETA-viscosity
Dout(M3vvis) == T       ! u_vvisc, ...       vertical viscosity

! Logical switches (TRUE/FALSE) to activate writing of time-averaged,
! active (temperature and salinity) and passive (inert) tracer diagnostic
! terms into DIAGNOSTIC output file: [1:NAT+NPT,Ngrids].

Dout(iTrate) == T T     ! temp_rate, ...     time rate of change
Dout(iThadv) == T T     ! temp_hadv, ...     horizontal total advection
Dout(iTxadv) == T T     ! temp_xadv, ...     horizontal XI-advection
Dout(iTyadv) == T T     ! temp_yadv, ...     horizontal ETA-advection
Dout(iTvadv) == T T     ! temp_vadv, ...     vertical advection
Dout(iThdif) == T T     ! temp_hdiff, ...    horizontal total diffusion
Dout(iTxdif) == T T     ! temp_xdiff, ...    horizontal XI-diffusion
Dout(iTydif) == T T     ! temp_ydiff, ...    horizontal ETA-diffusion
Dout(iTsdif) == T T     ! temp_sdiff, ...    horizontal S-diffusion
Dout(iTvdif) == T T     ! temp_vdiff, ...    vertical diffusion


! Generic User parameters, [1:NUSER].

       NUSER =  0
        USER =  0.d0

! NetCDF-4/HDF5 compression parameters for output files.

  NC_SHUFFLE =  1                 ! if non-zero, turn on shuffle filter
  NC_DEFLATE =  1                 ! if non-zero, turn on deflate filter
   NC_DLEVEL =  1                 ! deflate level [0-9]

! Input NetCDF file names, [1:Ngrids].

     GRDNAME == /glade/p/cgd/oce/people/paulmac/roms/forcing/ptx_highT40_2_2005/grid.nc
     ININAME == /glade/p/cgd/oce/people/paulmac/roms/forcing/ptx_highT40_2_2005/ocn/ocean_inirst_2005.nc

! Input lateral boundary conditions and climatology file names.  The
! USER has the option to split input data time records into several
! NetCDF files (see prologue instructions above). If so, use a single
! line per entry with a vertical bar (|) symbol after each entry,
! except the last one.

   BRYNAME == /glade/p/cgd/oce/people/paulmac/roms/forcing/ptx_highT40_2_2005/ocn/ocean_bry_1.nc |
              /glade/p/cgd/oce/people/paulmac/roms/forcing/ptx_highT40_2_2005/ocn/ocean_bry_2.nc
   CLMNAME == /glade/p/cgd/oce/people/paulmac/roms/forcing/ptx_highT40_2_2005/ocn/ocean_clm_1.nc |
              /glade/p/cgd/oce/people/paulmac/roms/forcing/ptx_highT40_2_2005/ocn/ocean_clm_2.nc

! Input forcing NetCDF file name(s).  The USER has the option to enter
! several file names for each nested grid.  For example, the USER may
! have different files for wind products, heat fluxes, rivers, tides,
! etc.  The model will scan the file list and will read the needed data
! from the first file in the list containing the forcing field. Therefore,
! the order of the file names is very important. If using multiple forcing
! files per grid, first enter all the file names for grid 1, then grid 2,
! and so on.  It is also possible to split input data time records into
! several NetCDF files (see prologue instructions above). Use a single line
! per entry with a continuation (\) or vertical bar (|) symbol after each
! entry, except the last one.

     NFFILES == 10                          ! number of unique forcing files

     FRCNAME == /glade/p/cgd/oce/people/paulmac/roms/forcing/ptx_highT40_2_2005/tides.nc \
  /glade/p/cgd/oce/people/paulmac/roms/forcing/ptx_highT40_2_2005/atm/lwrad_down.nc \
  /glade/p/cgd/oce/people/paulmac/roms/forcing/ptx_highT40_2_2005/atm/Pair.nc \
  /glade/p/cgd/oce/people/paulmac/roms/forcing/ptx_highT40_2_2005/atm/Qair.nc \
  /glade/p/cgd/oce/people/paulmac/roms/forcing/ptx_highT40_2_2005/atm/rain.nc \
  /glade/p/cgd/oce/people/paulmac/roms/forcing/ptx_highT40_2_2005/atm/swrad.nc \
  /glade/p/cgd/oce/people/paulmac/roms/forcing/ptx_highT40_2_2005/atm/Tair.nc \
  /glade/p/cgd/oce/people/paulmac/roms/forcing/ptx_highT40_2_2005/atm/Uwind.nc \
  /glade/p/cgd/oce/people/paulmac/roms/forcing/ptx_highT40_2_2005/atm/Vwind.nc \
  /glade/p/cgd/oce/people/paulmac/roms/forcing/ptx_highT40_2_2005/rivers.nc

! Output NetCDF file names, [1:Ngrids].

  
     RSTNAME == /glade/p/cgd/oce/people/paulmac/roms/output/Cdia2005/ocean_rst.nc
     HISNAME == /glade/p/cgd/oce/people/paulmac/roms/output/Cdia2005/ocean_his.nc
     AVGNAME == /glade/p/cgd/oce/people/paulmac/roms/output/Cdia2005/ocean_avg.nc
     DIANAME == /glade/p/cgd/oce/people/paulmac/roms/output/Cdia2005/ocean_dia.nc
     

